LAMMPS (29 Aug 2024 - Update 1)
Loaded 1 plugins from /data/home/wzu23cj/anaconda3/envs/deepmdkit_tf_lm/lib/python3.10/site-packages/deepmd/lib
#模型基本设置
units             metal
dimension         3
newton            on
boundary          p p p
atom_style      atomic
neighbor          0.3 bin
#模拟步长0.5fs
timestep          0.001
#读取data文件

read_data       r5.data
Reading data file ...
  orthogonal box = (0 0 0) to (522.19202 50.247997 20)
  reading atoms ...
  9600 atoms

mass 1 10.811  # B
mass 2 14.007  # N

pair_style	deepmd BNcompress.pb
Summary of lammps deepmd module ...
  >>> Info of deepmd-kit:
  installed to:       /tmp/tmptbpe6tn3/wheel/platlib
  source:             v3.0.3
  source branch:      HEAD
  source commit:      e7eb16e1
  source commit at:   2025-05-23 23:43:28 +0800
  support model ver.: 1.1
  build variant:      cuda
  build with tf inc:  /tmp/build-env-85oudwf8/lib/python3.11/site-packages/tensorflow/include/;/tmp/build-env-85oudwf8/lib/python3.11/site-packages/tensorflow/include/
  build with tf lib:  /tmp/build-env-85oudwf8/lib/python3.11/site-packages/tensorflow/libtensorflow_cc.so.2
  set tf intra_op_parallelism_threads: 0
  set tf inter_op_parallelism_threads: 0
  >>> Info of lammps module:
  use deepmd-kit at:  /tmp/tmptbpe6tn3/wheel/platlib
  source:             v3.0.3
  source branch:      HEAD
  source commit:      e7eb16e1
  source commit at:   2025-05-23 23:43:28 +0800
  build with inc:     /tmp/build-env-85oudwf8/lib/python3.11/site-packages/torch/include;/tmp/build-env-85oudwf8/lib/python3.11/site-packages/torch/include/torch/csrc/api/include
  build with lib:     /tmp/build-env-85oudwf8/lib/python3.11/site-packages/tensorflow;/tmp/build-env-85oudwf8/lib/python3.11/site-packages/torch/lib
pair_coeff  	* *

#计算温度
compute       ke1  all  ke/atom
variable      kb  equal 8.625e-5
variable      temp1 atom  c_ke1/1.5/8.625e-05
#热力学量输出
thermo	      1000
thermo_style  custom    step    temp   pxx pyy pzz press  vol
#温度初始化
velocity	all create 300 898758 mom yes rot yes dist gaussian

#能量最小化
min_style	    cg
minimize	    1.0e-8 1.0e-8 1000000 1000000

CITE-CITE-CITE-CITE-CITE-CITE-CITE-CITE-CITE-CITE-CITE-CITE-CITE

Your simulation uses code contributions which should be cited:

- Type Label Framework: https://doi.org/10.1021/acs.jpcb.3c08419

@Article{Gissinger24,
 author = {Jacob R. Gissinger, Ilia Nikiforov, Yaser Afshar, Brendon Waters, Moon-ki Choi, Daniel S. Karls, Alexander Stukowski, Wonpil Im, Hendrik Heinz, Axel Kohlmeyer, and Ellad B. Tadmor},
 title = {Type Label Framework for Bonded Force Fields in LAMMPS},
 journal = {J. Phys. Chem. B},
 year =    2024,
 volume =  128,
 number =  13,
 pages =   {3282–-3297}
}

- USER-DEEPMD package:

@article{Wang_ComputPhysCommun_2018_v228_p178,
  author = {Wang, Han and Zhang, Linfeng and Han, Jiequn and E, Weinan},
  doi = {10.1016/j.cpc.2018.03.016},
  url = {https://doi.org/10.1016/j.cpc.2018.03.016},
  year = 2018,
  month = {jul},
  publisher = {Elsevier {BV}},
  volume = 228,
  journal = {Comput. Phys. Commun.},
  title = {{DeePMD-kit: A deep learning package for many-body potential energy representation and molecular dynamics}},
  pages = {178--184}
}
@article{Zeng_JChemPhys_2023_v159_p054801,
  title  = {{DeePMD-kit v2: A software package for deep potential models}},
  author =   {Jinzhe Zeng and Duo Zhang and Denghui Lu and Pinghui Mo and Zeyu Li
         and Yixiao Chen and Mari{\'a}n Rynik and Li'ang Huang and Ziyao Li and
         Shaochen Shi and Yingze Wang and Haotian Ye and Ping Tuo and Jiabin
         Yang and Ye Ding and Yifan Li and Davide Tisi and Qiyu Zeng and Han
         Bao and Yu Xia and Jiameng Huang and Koki Muraoka and Yibo Wang and
         Junhan Chang and Fengbo Yuan and Sigbj{\o}rn L{\o}land Bore and Chun
         Cai and Yinnian Lin and Bo Wang and Jiayan Xu and Jia-Xin Zhu and
         Chenxing Luo and Yuzhi Zhang and Rhys E A Goodall and Wenshuo Liang
         and Anurag Kumar Singh and Sikai Yao and Jingchao Zhang and Renata
         Wentzcovitch and Jiequn Han and Jie Liu and Weile Jia and Darrin M
         York and Weinan E and Roberto Car and Linfeng Zhang and Han Wang},
  journal =  {J. Chem. Phys.},
  volume =   159,
  issue =    5,
  year =    2023,
  pages  =   054801,
  doi =      {10.1063/5.0155600},
}
@Article{Zeng_arXiv_2025_p2502.19161,
  annote       = {general purpose},
    author =   {Jinzhe Zeng and Duo Zhang and Anyang Peng and Xiangyu Zhang and Sensen
             He and Yan Wang and Xinzijian Liu and Hangrui Bi and Yifan Li and Chun
             Cai and Chengqian Zhang and Yiming Du and Jia-Xin Zhu and Pinghui Mo
             and Zhengtao Huang and Qiyu Zeng and Shaochen Shi and Xuejian Qin and
             Zhaoxi Yu and Chenxing Luo and Ye Ding and Yun-Pei Liu and Ruosong Shi
             and Zhenyu Wang and Sigbj{\o}rn L{\o}land Bore and Junhan Chang and
             Zhe Deng and Zhaohan Ding and Siyuan Han and Wanrun Jiang and Guolin
             Ke and Zhaoqing Liu and Denghui Lu and Koki Muraoka and Hananeh Oliaei
             and Anurag Kumar Singh and Haohui Que and Weihong Xu and Zhangmancang
             Xu and Yong-Bin Zhuang and Jiayu Dai and Timothy J. Giese and Weile
             Jia and Ben Xu and Darrin M. York and Linfeng Zhang and Han Wang},
    title =    {{DeePMD-kit v3: A Multiple-Backend Framework for Machine Learning
             Potentials}},
    journal =  {arXiv},
    year =     2025,
    pages =    {2502.19161},
    doi =      {10.48550/arXiv.2502.19161},
}

CITE-CITE-CITE-CITE-CITE-CITE-CITE-CITE-CITE-CITE-CITE-CITE-CITE

Generated 0 of 1 mixed pair_coeff terms from geometric mixing rule
Step          Temp           Pxx            Pyy            Pzz           Press          Volume
0   300            20289.946      20324.516      757.68869      13790.717      524782.06
Loop time of 0.061471 on 1 procs for 1 steps with 9600 atoms

Minimization stats:
  Stopping criterion = energy tolerance
  Energy initial, next-to-last, final =
  Force two-norm initial, final = 0.10798974 0.00044288014
  Force max component initial, final = 0.0011021951 4.5293983e-06
  Final line search alpha, max atom move = 1 4.5293983e-06
  Iterations, force evaluations = 1 2

#npt系综下弛豫
thermo     2000
thermo_style   custom step temp pe ke etotal vol pxx pyy pzz press
fix         1 all npt temp 300 300 0.05 iso 0.0 0.0 0.5
dump	    1 all custom 100000 npt.xyz id type x y z
run         500000
Generated 0 of 1 mixed pair_coeff terms from geometric mixing rule
Step          Temp          PotEng         KinEng         TotEng         Volume          Pxx            Pyy            Pzz           Press
1   300           -84447.754      372.23044     -84075.524      524782.06      20295.656      20318.805      757.68869      13790.716
Averages over the last 126 of 252 rows, steps 252000 to 500001:
Temp PotEng KinEng TotEng Volume Pxx Pyy Pzz Press
299.89 -84133.6 372.094 -83761.5 538085 -428.653 476.727 -1.03996 15.6777
Loop time of 10286.3 on 1 procs for 500000 steps with 9600 atoms

unfix       1
undump      1
reset_timestep 0

write_data  Gp.data
System init for write_data ...
Generated 0 of 1 mixed pair_coeff terms from geometric mixing rule

#nvt系综下弛豫
thermo     2000
thermo_style   custom step temp pe ke etotal vol pxx pyy pzz press
fix         1 all nvt temp 300 300 0.05
dump	    1 all custom 20000 nvt.xyz id type x y z
run         100000
Generated 0 of 1 mixed pair_coeff terms from geometric mixing rule
Step          Temp          PotEng         KinEng         TotEng         Volume          Pxx            Pyy            Pzz           Press
0   301.88242     -84132.548      374.56608     -83757.982      537921.19     -487.37418      746.87454      12.345778      90.61538
Averages over the last 26 of 51 rows, steps 50000 to 100000:
Temp PotEng KinEng TotEng Volume Pxx Pyy Pzz Press
300.741 -84132.6 373.149 -83759.4 537921 -321.6 634.705 -1.93337 103.724
Loop time of 1968.33 on 1 procs for 100000 steps with 9600 atoms

unfix       1
undump      1
reset_timestep 0

#分块参数设置
variable X1 	 equal xlo
variable X2 	 equal xhi
variable Nlay    equal 100
variable Dscale  equal 1/100
variable Len     equal 524.353126679773--2.16111007813652
variable Dz      equal 526.51423675791/100

#固定端和冷热源端点处坐标
variable   BL1    equal   -2.16111007813652+2*5.2651423675791
variable   BL2    equal   -2.16111007813652+6*5.2651423675791
variable   BR1   equal   524.353126679773-6*5.2651423675791
variable   BR2   equal   524.353126679773-2*5.2651423675791

#区域设置
region	reg_all	block	-2.16111007813652  524.353126679773   INF INF      INF INF     units box
#左侧固定端
region	fixed_L	block	INF    8.36917465702168   INF INF      INF INF     units box
#左侧热源
region	Hot	block	8.36917465702168  29.4297441273381   INF INF      INF INF     units box
#右侧冷源
region	Cold	block	492.762272474298 513.822841944615  INF INF      INF INF     units box
#右侧固定端
region	fixed_R	block	513.822841944615 INF     INF INF      INF INF     units box

#对以上区域内原子进行分组
group	fixed_L		region	fixed_L         #fixed
200 atoms in group fixed_L
group	Hot		    region	Hot         #heatbath1
380 atoms in group Hot
group	Cold		region	Cold        #heatbath2
380 atoms in group Cold
group	fixed_R		region	fixed_R        #fixed
200 atoms in group fixed_R
group   mobile      subtract all fixed_L fixed_R
9200 atoms in group mobile

reset_timestep 0
#改变边界条件，传热方向改为固定边界
change_box all boundary  f p p
Changing box ...

#固定两端
velocity   fixed_L      set 0  0  0
velocity   fixed_R     set 0  0  0
fix      fixed_L     fixed_L    setforce  0   0   0
fix      fixed_R     fixed_R   setforce  0   0   0

#设置langevin控制冷热源
fix	  3	     Hot	langevin 305 305 0.05 14565 tally yes
fix	  4	     Cold	langevin 295 295 0.05 16576 tally yes
#nve系综
fix   5      all   nve

#定义热源和冷源输入和输出的能量
variable Time 	 equal step
variable EL 	 equal f_3
variable ER 	 equal f_4

#分块设置
compute 18 all chunk/atom bin/1d x lower 0.01 units reduced
#计算每一块的温度
fix 8 all ave/chunk 1 200000 200000 18 v_temp1 file temp_relax.dat

dump 1 all xyz 100000 relax.xyz
thermo 20000
thermo_style custom step temp ke pe etotal press vol
run 200000
Generated 0 of 1 mixed pair_coeff terms from geometric mixing rule
Step          Temp          KinEng         PotEng         TotEng         Press          Volume
0   287.41163      356.6112      -84067.11      -83710.499      259.01261      537921.19
Averages over the last 6 of 11 rows, steps 100000 to 200000:
Temp KinEng PotEng TotEng Press Volume
287.411 356.611 -84073.4 -83716.8 72.9475 537921
Loop time of 4105.89 on 1 procs for 200000 steps with 9600 atoms

unfix     8
undump    1
reset_timestep 0

#保存温差和能量，以下数据用于计算温度梯度和热流
fix 11 all ave/chunk 1 5000000 5000000 18 v_temp1 file temp_equ.dat

dump         1  all xyz 5000000 equ.xyz
thermo 1000000
thermo_style custom step temp ke pe etotal press vol
#运行
run 5000000
Generated 0 of 1 mixed pair_coeff terms from geometric mixing rule
Step          Temp          KinEng         PotEng         TotEng         Press          Volume
0   287.49707      356.7172      -84075.164     -83718.447      216.9124       537921.19
Loop time of 99978.4 on 1 procs for 5000000 steps with 9600 atoms
